   11
 MP2/AVTZ  ENERGY=-689.34298869
 H          1.1479492526       -1.4543018378       -0.1290033199
 H          0.3378253871       -2.4478556382        0.7498446566
 H          3.0264130434       -0.3782516740       -1.0141374790
 H          2.0685232161        0.5265177737       -0.2051134077
 H          0.0463412875        1.5512958531       -0.0091756345
 H          0.9076083427        2.7250317695       -0.4953126940
 O          0.2933607545       -1.9439322371       -0.0690180807
 O          2.4721559047       -0.3648058499       -0.2292626472
 O          0.9490387988        1.9097865434        0.0123622280
 H         -0.8489387884       -0.8602036847       -0.0641165508
 Cl        -1.7538576180        0.1320013848       -0.0764861036

   11
 MP2/AVTZ  ENERGY=-689.34290052
 H          1.1388873455       -1.4427011161       -0.0076176110
 H          0.2594364707       -2.6052908381       -0.5547915790
 H          3.0691569292       -0.2286133349       -0.7988955800
 H          1.9950320174        0.5765089693       -0.0332599984
 H         -0.0072761865        1.5870939448       -0.0161226103
 H          0.8636425990        2.4925754684        0.8596568244
 O          0.2832510638       -1.9158456977        0.1159928901
 O          2.4383490639       -0.2964987149       -0.0772549814
 O          0.8860878206        1.9618710032        0.0577034746
 H         -0.8697125437       -0.8434133619       -0.0368639739
 Cl        -1.7781785542        0.1353626471       -0.1564667943

