6
    -0.00470806 (ab initio potential for comparison)
O        0.0003210000      1.1598980000      0.0000000000                 
O        0.0004140000     -1.1598940000      0.0000000000                 
O        2.7717960000      0.0000520000      0.0000000000                 
H        3.3543310000      0.7605370000      0.0000000000                 
H        3.3542230000     -0.7605150000      0.0000000000                 
C        0.0195380000      0.0000030000      0.0000000000                 

