6 
     -0.00319730
O    -0.28206198    1.16997384   -0.13913384
O     0.26107760   -1.07002284    0.12924070
O    -2.57213625    2.35115558    1.68527530
H    -2.60054369    2.49001288    0.72889806
H    -1.69598333    2.66394956    1.95220567
C     0.03209207   -0.13318356    0.01606250
6 
     -0.00279262
O    -0.27997021    1.16126909   -0.13808804
O     0.26317219   -1.07870742    0.13029675
O    -2.57213625    2.35115558    1.68527530
H    -2.60054369    2.49001288    0.72889806
H    -1.69598333    2.66394956    1.95220567
C     0.02648443   -0.10991161    0.01325580
6 
     -0.00279261
O    -0.27997021    1.16126909   -0.13808804
O     0.26317219   -1.07870742    0.13029675
O    -2.57213625    2.35115558    1.68527530
H    -2.60054369    2.49001288    0.72889806
H    -1.69598333    2.66394956    1.95220567
C     0.02648443   -0.10991161    0.01325580
6 
     -0.00161645
O    -0.25811996    1.07034059   -0.12716377
O     0.28505192   -1.16942521    0.14132810
O    -0.67830992   -1.27458488    3.42755472
H    -0.36563652   -2.01425629    2.89037747
H    -1.53888262   -1.00885491    3.07514185
C    -0.03209207    0.13318356   -0.01606250
6 
     -0.00160403
O    -0.28206198    1.16997384   -0.13913384
O     0.26107760   -1.07002284    0.12924070
O    -1.15824506   -3.79849111   -0.02783023
H    -1.51617607   -4.68630879   -0.00299405
H    -0.52440944   -3.74029418    0.71056262
C     0.03209207   -0.13318356    0.01606250
6 
     -0.00136509
O    -0.25811996    1.07034059   -0.12716377
O     0.28505192   -1.16942521    0.14132810
O     0.05118256    3.19969235    2.40782664
H     0.56790219    3.41300442    1.59736409
H     0.12122152    3.96744306    2.97524969
C    -0.03209207    0.13318356   -0.01606250
6 
     -0.00133387
O    -0.28206198    1.16997384   -0.13913384
O     0.26107760   -1.07002284    0.12924070
O     2.93021570   -2.53781424    1.14882137
H     3.13325853   -1.64819643    1.47086728
H     2.88973900   -2.47917640    0.18177704
C     0.03209207   -0.13318356    0.01606250
6 
     -0.00131598
O    -0.27997021    1.16126909   -0.13808804
O     0.26317219   -1.07870742    0.13029675
O    -1.15824506   -3.79849111   -0.02783023
H    -1.51617607   -4.68630879   -0.00299405
H    -0.52440944   -3.74029418    0.71056262
C     0.02648443   -0.10991161    0.01325580
6 
     -0.00105557
O    -0.25811996    1.07034059   -0.12716377
O     0.28505192   -1.16942521    0.14132810
O    -2.57213625    2.35115558    1.68527530
H    -2.60054369    2.49001288    0.72889806
H    -1.69598333    2.66394956    1.95220567
C    -0.03209207    0.13318356   -0.01606250
6 
     -0.00103887
O    -0.25811996    1.07034059   -0.12716377
O     0.28505192   -1.16942521    0.14132810
O    -1.15824506   -3.79849111   -0.02783023
H    -1.51617607   -4.68630879   -0.00299405
H    -0.52440944   -3.74029418    0.71056262
C    -0.03209207    0.13318356   -0.01606250
6 
     -0.00095609
O    -0.28206198    1.16997384   -0.13913384
O     0.26107760   -1.07002284    0.12924070
O    -2.61775316    2.73183717   -1.16203934
H    -3.25739678    3.34571091   -1.52384913
H    -1.74698804    3.02323013   -1.49185195
C     0.03209207   -0.13318356    0.01606250
6 
     -0.00091331
O    -0.25811996    1.07034059   -0.12716377
O     0.28505192   -1.16942521    0.14132810
O    -2.61775316    2.73183717   -1.16203934
H    -3.25739678    3.34571091   -1.52384913
H    -1.74698804    3.02323013   -1.49185195
C    -0.03209207    0.13318356   -0.01606250
6 
     -0.00090493
O    -0.25811996    1.07034059   -0.12716377
O     0.28505192   -1.16942521    0.14132810
O     2.68176009   -2.45633688   -1.65458025
H     1.76409533   -2.66089057   -1.95256026
H     3.25681389   -3.02366267   -2.16860597
C    -0.03209207    0.13318356   -0.01606250
6 
     -0.00089913
O    -0.28206198    1.16997384   -0.13913384
O     0.26107760   -1.07002284    0.12924070
O     0.19835337   -3.00898697   -2.43526323
H    -0.33259171   -3.24288640   -1.66234125
H    -0.27260643   -2.28668907   -2.87755548
C     0.03209207   -0.13318356    0.01606250
6 
     -0.00088508
O    -0.28206198    1.16997384   -0.13913384
O     0.26107760   -1.07002284    0.12924070
O     0.05118256    3.19969235    2.40782664
H     0.56790219    3.41300442    1.59736409
H     0.12122152    3.96744306    2.97524969
C     0.03209207   -0.13318356    0.01606250
6 
     -0.00088507
O    -0.28206198    1.16997384   -0.13913384
O     0.26107760   -1.07002284    0.12924070
O     0.05118256    3.19969235    2.40782664
H     0.56790219    3.41300442    1.59736409
H     0.12122152    3.96744306    2.97524969
C     0.03209207   -0.13318356    0.01606250
6 
     -0.00079241
O    -0.25811996    1.07034059   -0.12716377
O     0.28505192   -1.16942521    0.14132810
O     1.49998808    3.70461021    0.21935877
H     0.97928297    3.56049343   -0.58379971
H     2.23954941    3.08348204    0.17311171
C    -0.03209207    0.13318356   -0.01606250
6 
     -0.00068997
O    -0.25811996    1.07034059   -0.12716377
O     0.28505192   -1.16942521    0.14132810
O     0.19835337   -3.00898697   -2.43526323
H    -0.33259171   -3.24288640   -1.66234125
H    -0.27260643   -2.28668907   -2.87755548
C    -0.03209207    0.13318356   -0.01606250
6 
     -0.00067790
O    -0.28206198    1.16997384   -0.13913384
O     0.26107760   -1.07002284    0.12924070
O     1.49998808    3.70461021    0.21935877
H     0.97928297    3.56049343   -0.58379971
H     2.23954941    3.08348204    0.17311171
C     0.03209207   -0.13318356    0.01606250
6 
     -0.00067628
O    -0.27997021    1.16126909   -0.13808804
O     0.26317219   -1.07870742    0.13029675
O     0.05118256    3.19969235    2.40782664
H     0.56790219    3.41300442    1.59736409
H     0.12122152    3.96744306    2.97524969
C     0.02648443   -0.10991161    0.01325580
6 
     -0.00067113
O    -0.28206198    1.16997384   -0.13913384
O     0.26107760   -1.07002284    0.12924070
O     2.68176009   -2.45633688   -1.65458025
H     1.76409533   -2.66089057   -1.95256026
H     3.25681389   -3.02366267   -2.16860597
C     0.03209207   -0.13318356    0.01606250
6 
     -0.00065580
O    -0.28206198    1.16997384   -0.13913384
O     0.26107760   -1.07002284    0.12924070
O     0.60680937   -3.45519706    2.06308810
H     0.83005513   -4.13607369    2.69862074
H     1.46860453   -3.10597294    1.72940516
C     0.03209207   -0.13318356    0.01606250
6 
     -0.00060761
O    -0.26021173    1.07904534   -0.12820958
O     0.28295733   -1.16074063    0.14027205
O    -2.61775316    2.73183717   -1.16203934
H    -3.25739678    3.34571091   -1.52384913
H    -1.74698804    3.02323013   -1.49185195
C    -0.02648443    0.10991161   -0.01325580
6 
     -0.00056224
O    -0.27997021    1.16126909   -0.13808804
O     0.26317219   -1.07870742    0.13029675
O    -2.61775316    2.73183717   -1.16203934
H    -3.25739678    3.34571091   -1.52384913
H    -1.74698804    3.02323013   -1.49185195
C     0.02648443   -0.10991161    0.01325580
6 
     -0.00054591
O    -0.25811996    1.07034059   -0.12716377
O     0.28505192   -1.16942521    0.14132810
O    -0.11918506    3.40796359   -2.11968573
H     0.01443908    4.14615096   -2.71547952
H     0.19578902    2.60392768   -2.61119934
C    -0.03209207    0.13318356   -0.01606250
6 
     -0.00054070
O    -0.26021173    1.07904534   -0.12820958
O     0.28295733   -1.16074063    0.14027205
O    -1.15824506   -3.79849111   -0.02783023
H    -1.51617607   -4.68630879   -0.00299405
H    -0.52440944   -3.74029418    0.71056262
C    -0.02648443    0.10991161   -0.01325580
6 
     -0.00051069
O    -0.27997021    1.16126909   -0.13808804
O     0.26317219   -1.07870742    0.13029675
O     1.49998808    3.70461021    0.21935877
H     0.97928297    3.56049343   -0.58379971
H     2.23954941    3.08348204    0.17311171
C     0.02648443   -0.10991161    0.01325580
6 
     -0.00045913
O    -0.25811996    1.07034059   -0.12716377
O     0.28505192   -1.16942521    0.14132810
O     2.93021570   -2.53781424    1.14882137
H     3.13325853   -1.64819643    1.47086728
H     2.88973900   -2.47917640    0.18177704
C    -0.03209207    0.13318356   -0.01606250
6 
     -0.00045624
O    -0.25811996    1.07034059   -0.12716377
O     0.28505192   -1.16942521    0.14132810
O     0.60680937   -3.45519706    2.06308810
H     0.83005513   -4.13607369    2.69862074
H     1.46860453   -3.10597294    1.72940516
C    -0.03209207    0.13318356   -0.01606250
6 
     -0.00045411
O    -0.27997021    1.16126909   -0.13808804
O     0.26317219   -1.07870742    0.13029675
O     0.60680937   -3.45519706    2.06308810
H     0.83005513   -4.13607369    2.69862074
H     1.46860453   -3.10597294    1.72940516
C     0.02648443   -0.10991161    0.01325580
6 
     -0.00039929
O    -0.26021173    1.07904534   -0.12820958
O     0.28295733   -1.16074063    0.14027205
O     2.68176009   -2.45633688   -1.65458025
H     1.76409533   -2.66089057   -1.95256026
H     3.25681389   -3.02366267   -2.16860597
C    -0.02648443    0.10991161   -0.01325580
6 
      0.00031591
O    -0.26021173    1.07904534   -0.12820958
O     0.28295733   -1.16074063    0.14027205
O     0.60680937   -3.45519706    2.06308810
H     0.83005513   -4.13607369    2.69862074
H     1.46860453   -3.10597294    1.72940516
C    -0.02648443    0.10991161   -0.01325580
6 
      0.00038935
O    -0.28206198    1.16997384   -0.13913384
O     0.26107760   -1.07002284    0.12924070
O    -0.11918506    3.40796359   -2.11968573
H     0.01443908    4.14615096   -2.71547952
H     0.19578902    2.60392768   -2.61119934
C     0.03209207   -0.13318356    0.01606250
6 
      0.00050075
O    -0.26021173    1.07904534   -0.12820958
O     0.28295733   -1.16074063    0.14027205
O    -0.11918506    3.40796359   -2.11968573
H     0.01443908    4.14615096   -2.71547952
H     0.19578902    2.60392768   -2.61119934
C    -0.02648443    0.10991161   -0.01325580
6 
      0.00136948
O    -0.27997021    1.16126909   -0.13808804
O     0.26317219   -1.07870742    0.13029675
O    -0.11918506    3.40796359   -2.11968573
H     0.01443908    4.14615096   -2.71547952
H     0.19578902    2.60392768   -2.61119934
C     0.02648443   -0.10991161    0.01325580
