11
   -689.34178845
H     1.15179297   -1.39274687   -0.04788222
H     0.27821784   -2.53867447   -0.63478712
H     3.09555779   -0.21084970   -0.83272016
H     2.06665301    0.60659186   -0.02569487
H    -0.02343069    1.61536225    0.07632787
H     0.84640547    2.88671802    0.03731482
O     0.29155905   -1.86225790    0.04951461
O     2.48607275   -0.27345031   -0.09255315
O     0.88403445    1.93935848    0.19196114
H    -0.87279165   -0.79352768   -0.09225682
Cl    -1.79513244    0.17202772   -0.19951683
