11
   -689.34290063
H     1.19786664   -1.49719997    0.08013964
H     0.32951129   -2.68367941   -0.43172301
H     3.12591674   -0.29617586   -0.73872566
H     2.04358302    0.52475214   -0.00286484
H     0.03531710    1.52406600   -0.03015237
H     0.89345991    2.46000582    0.82596361
O     0.34404515   -1.97044312    0.21400426
O     2.49261636   -0.34616880   -0.01788660
O     0.92576984    1.90623462    0.04009734
H    -0.81516086   -0.90988191    0.01620338
Cl    -1.72814257    0.05867249   -0.14241351
