11
   -689.34180102
H     1.20233242   -1.41608797   -0.16144526
H     0.36947365   -2.66236204    0.25612886
H     3.11665146   -0.30657786    0.79050629
H     2.07117341    0.58901525    0.09406129
H    -0.06673940    1.54800097    0.17945711
H     0.76270208    2.84859531    0.19741818
O     0.35505955   -1.89113182   -0.32316279
O     2.51480172   -0.27988016    0.03981644
O     0.83709540    1.89362836    0.10325413
H    -0.85533960   -0.88778042   -0.01333174
Cl    -1.80071210    0.02153668    0.24707675
