11
   -689.34365162
H     1.19977489   -1.37029226   -0.20141685
H     0.27708346   -2.42259507   -0.87933651
H     3.15987262   -0.17513491    0.25910048
H     1.99115283    0.65800371   -0.31350193
H    -0.01525307    1.60041131    0.05734730
H     0.68264032    2.62464351   -0.84427800
O     0.37639015   -1.89975125   -0.07745142
O     2.44908774   -0.20512406   -0.38725353
O     0.84813309    2.00656434   -0.12629464
H    -0.79331041   -0.86463332    0.15807941
Cl    -1.71317300    0.08810668    0.37325949
