11
   -689.34298885
H     1.15421224   -1.42872090   -0.05916098
H     0.23749778   -2.38692398   -0.86923825
H     3.12922443   -0.36860273    0.61650278
H     2.06774001    0.55808480   -0.01974853
H     0.03409561    1.57056085    0.10015780
H     0.94833220    2.73081122    0.51634975
O     0.30143354   -1.92373140   -0.02781223
O     2.47561638   -0.32910735   -0.08674767
O     0.92365579    1.93925680   -0.02898660
H    -0.83686116   -0.85038640    0.17401788
Cl    -1.73424106    0.13134011    0.35540218
