11
   -689.34298889
H     1.14651507   -1.43785457    0.07272165
H     0.29692883   -2.37435180    0.97589567
H     3.05809246   -0.38020530   -0.76966817
H     2.02753059    0.55665983   -0.09803778
H    -0.02521106    1.53937842   -0.12579712
H     0.84512829    2.69623139   -0.63528329
O     0.30071920   -1.94380256    0.11494511
O     2.45167265   -0.32242375   -0.02637858
O     0.86541111    1.92258825   -0.06495417
H    -0.86435853   -0.89286608   -0.05531007
Cl    -1.78512157    0.06995494   -0.21731772
