11
   -689.34365162
H     1.15083381   -1.41469930    0.06921061
H     0.32511707   -2.40316187    0.94059163
H     3.04074495   -0.31895111   -0.77479986
H     2.02303000    0.57964618   -0.03668937
H     0.01927544    1.59621398   -0.08152653
H     0.90449917    2.61827822    0.64079332
O     0.29957808   -1.91182322    0.11340303
O     2.45519759   -0.29942431   -0.01274606
O     0.91609379    1.97010841   -0.06976710
H    -0.85341356   -0.83567926    0.04950628
Cl    -1.76109732    0.14918521   -0.03540969
